! RKS B3LYP 6-31+G** NormalSCF Opt NOSOSCF CHELPG

*xyz 0 1
S -0.49629 0.13163 -0.46348
C 1.34292 0.12359 -0.43223
C 1.84411 -0.25102 0.96627
O 3.28206 -0.25224 0.97189
C 3.78222 -0.59578 2.25424
H 1.77343 1.09523 -0.70559
H 1.77372 -0.58109 -1.15472
H 1.49124 -1.25084 1.25018
H 1.49090 0.47277 1.71200
H 4.87473 -0.58424 2.21222
H 3.45627 -1.60102 2.53861
H 3.45584 0.13239 3.00315
*