! RKS B3LYP 6-31+G** NormalSCF Opt NOSOSCF CHELPG

*xyz 0 1
S -1.25714 -0.21312 0.94430
C 0.57974 -0.20161 0.88154
C 1.05932 0.07402 -0.54737
O 2.49676 0.07713 -0.56871
C 2.98771 0.33111 -1.88220
C 4.51137 0.32444 -1.85027
O 5.02803 0.57839 -3.15939
C 6.44831 0.57925 -3.16183
H 1.01853 -1.14993 1.21670
H 1.01909 0.55364 1.54544
H 0.70023 1.05063 -0.89650
H 0.69920 -0.70189 -1.23488
H 2.62819 1.30320 -2.24013
H 2.62754 -0.43706 -2.57684
H 4.86964 -0.64748 -1.49000
H 4.87023 1.09061 -1.15240
H 6.79052 0.77723 -4.18122
H 6.83353 -0.39571 -2.84795
H 6.83307 1.36618 -2.50597
*