! RKS B3LYP 6-31+G** NormalSCF Opt NOSOSCF CHELPG

*xyz 0 1
S -2.78850 0.94744 1.80383
C -0.95119 0.92500 1.75466
C -0.46570 0.23501 0.47599
O 0.97196 0.22842 0.46031
C 1.46439 -0.40731 -0.71542
C 2.98771 -0.39172 -0.68996
O 3.49446 -1.02776 -1.86602
C 4.92010 -1.03571 -1.88037
C 5.40110 -1.72283 -3.15330
O 6.82894 -1.73766 -3.17862
C 7.32078 -2.37517 -4.35724
C 8.84477 -2.36386 -4.33166
O 9.34906 -2.99951 -5.50616
C 10.77024 -3.00884 -5.51930
H -0.51284 0.40525 2.61596
H -0.51624 1.93179 1.79094
H -0.82432 0.76825 -0.41376
H -0.82231 -0.80211 0.43439
H 1.10347 0.11560 -1.60898
H 1.10578 -1.44268 -0.76498
H 3.34960 -0.91446 0.20360
H 3.34752 0.64301 -0.63981
H 5.30395 -1.56884 -1.00237
H 5.30432 -0.00930 -1.84401
H 5.01574 -1.18955 -4.03069
H 5.01444 -2.74845 -3.18960
H 6.95979 -1.84933 -5.24912
H 6.95731 -3.40852 -4.40681
H 9.20395 -2.88798 -3.43768
H 9.20656 -1.32979 -4.27982
H 11.10290 -3.50461 -6.43507
H 11.15794 -3.56505 -4.66034
H 11.16043 -1.98646 -5.51404
*