! RKS B3LYP 6-31+G** NormalSCF Opt NOSOSCF CHELPG

*xyz 0 1
S -2.79214 1.57830 1.29188
C -0.95486 1.53900 1.25434
C -0.46940 0.41525 0.33358
O 0.96832 0.40389 0.32093
C 1.46058 -0.62943 -0.52702
C 2.98416 -0.60505 -0.50945
O 3.49111 -1.63805 -1.35793
C 4.91675 -1.65063 -1.36838
C 5.39799 -2.76728 -2.28782
O 6.82590 -2.78988 -2.30619
C 7.31782 -3.82322 -3.15926
C 8.84199 -3.80301 -3.13998
O 9.34601 -4.83282 -3.99040
C 10.76739 -4.84665 -3.99906
H -0.51607 1.38580 2.24825
H -0.52010 2.48413 0.90557
H -0.82863 0.57027 -0.69184
H -0.82531 -0.56010 0.68938
H 1.10002 -0.48288 -1.55222
H 1.10207 -1.60655 -0.18193
H 3.34600 -0.75175 0.51566
H 3.34407 0.37216 -0.85372
H 5.30076 -1.81268 -0.35412
H 5.30064 -0.68631 -1.72229
H 5.01212 -2.60494 -3.30146
H 5.01205 -3.73093 -1.93402
H 6.95672 -3.67070 -4.18330
H 6.95445 -4.79967 -2.81730
H 9.20117 -3.95321 -2.11470
H 9.20338 -2.82492 -3.48010
H 11.09979 -5.64937 -4.66236
H 11.15474 -5.04028 -2.99417
H 11.15721 -3.89666 -4.37723
*