! RKS B3LYP 6-31+G** NormalSCF Opt NOSOSCF CHELPG

*xyz 0 1
S 2.06078 -5.75969 3.29037
C 2.06078 -3.92211 3.29037
C 1.30697 -3.39504 2.06595
O 1.32198 -1.95851 2.08792
C 0.63063 -1.42700 0.96305
C 0.67275 0.09292 1.02937
O -0.01977 0.63651 -0.09545
C -0.00434 2.06005 -0.07342
C -0.75624 2.57802 -1.29096
O -0.74699 4.00433 -1.27862
C -1.44338 4.53272 -2.40351
C -1.40149 6.05196 -2.33825
O -2.09641 6.58704 -3.46187
C -2.08218 8.01188 -3.44465
C -2.83578 8.52669 -4.66114
O -2.82267 9.95213 -4.64783
C -3.51869 10.48330 -5.77183
C -3.47303 12.00269 -5.70826
O -4.16900 12.53600 -6.83182
C -4.15401 13.96131 -6.81942
C -4.90920 14.47619 -8.03671
O -4.89411 15.90197 -8.02712
C -5.59053 16.43431 -9.15276
C -5.54402 17.95549 -9.09237
O -6.23855 18.49594 -10.21480
C -6.22112 19.91704 -10.19769
H 3.07351 -3.49962 3.28056
H 1.59597 -3.49961 4.19019
H 0.26356 -3.73541 2.07435
H 1.78319 -3.73691 1.13810
H -0.41126 -1.76881 0.96123
H 1.09834 -1.77034 0.03270
H 1.71407 0.43734 1.03043
H 0.20588 0.43871 1.95964
H 1.02823 2.42898 -0.08919
H -0.47956 2.43105 0.84260
H -1.78852 2.20802 -1.27597
H -0.28141 2.20662 -2.20723
H -2.48437 4.18776 -2.40113
H -0.97746 4.18706 -3.33426
H -0.36004 6.39594 -2.33960
H -1.86630 6.39743 -1.40688
H -1.04930 8.38023 -3.46224
H -2.55515 8.38424 -2.52795
H -3.86845 8.15819 -4.64290
H -2.36333 8.15299 -5.57770
H -4.56062 10.14113 -5.76779
H -3.05535 10.13517 -6.70287
H -2.43086 12.34402 -5.71173
H -3.93597 12.35015 -4.77671
H -3.12070 14.32810 -6.83901
H -4.62495 14.33584 -5.90257
H -5.94212 14.10894 -8.01575
H -4.43817 14.09952 -8.95260
H -6.63248 16.09233 -9.14745
H -5.12735 16.08351 -10.08287
H -4.50103 18.29464 -9.09518
H -6.00550 18.30334 -8.16019
H -6.76482 20.27817 -11.07445
H -5.19267 20.28750 -10.24619
H -6.71656 20.29503 -9.29818
*