! RKS B3LYP 6-31+G** NormalSCF Opt NOSOSCF CHELPG

*xyz 0 1
S -5.64156 3.05937 2.68869
C -3.80423 3.01915 2.65398
C -3.31907 1.92413 1.69967
O -1.88224 1.91494 1.68920
C -1.38923 0.90755 0.81291
C 0.13249 0.93533 0.83380
O 0.63766 -0.07281 -0.04314
C 2.06151 -0.08247 -0.05406
C 2.53815 -1.17342 -1.00200
O 3.96415 -1.19133 -1.01987
C 4.45546 -2.20088 -1.89678
C 5.97635 -2.17394 -1.87543
O 6.47369 -3.18363 -2.75063
C 7.89833 -3.19698 -2.76311
C 8.37186 -4.28868 -3.71038
O 9.79700 -4.30599 -3.72530
C 10.28983 -5.31643 -4.60056
C 11.81081 -5.29174 -4.57693
O 12.30557 -6.30287 -5.45097
C 13.73085 -6.32231 -5.46320
C 14.20449 -7.41751 -6.40853
O 15.62987 -7.44013 -6.42029
C 16.12418 -8.45419 -7.29358
C 17.64686 -8.43503 -7.26656
O 18.14906 -9.44639 -8.13800
C 19.57011 -9.46489 -8.14352
H -3.36712 2.83514 3.64278
H -3.36794 3.97434 2.33407
H -3.67674 2.11030 0.67859
H -3.67496 0.93858 2.02501
H -1.74866 1.08236 -0.20829
H -1.74588 -0.07989 1.12970
H 0.49435 0.75997 1.85418
H 0.49158 1.92200 0.51705
H 2.44778 -0.27122 0.95476
H 2.44522 0.89057 -0.38367
H 2.15155 -0.98525 -2.01093
H 2.15365 -2.14669 -0.67307
H 4.09412 -2.02540 -2.91727
H 4.09599 -3.18701 -1.57889
H 6.33740 -2.34824 -0.85453
H 6.33566 -1.18765 -2.19341
H 8.28405 -3.38590 -1.75408
H 8.28359 -2.22452 -3.09276
H 7.98571 -4.09989 -4.71945
H 7.98543 -5.26075 -3.38076
H 9.92990 -5.14095 -5.62157
H 9.92822 -6.30172 -4.28250
H 12.16977 -5.46567 -3.55533
H 12.17197 -4.30637 -4.89539
H 14.11449 -6.51015 -4.45315
H 14.11874 -5.35119 -5.79346
H 13.82094 -7.22797 -7.41824
H 13.81364 -8.38745 -6.07836
H 15.76706 -8.27822 -8.31542
H 15.75782 -9.43747 -6.97496
H 18.00142 -8.60893 -6.24334
H 18.01075 -7.44996 -7.58297
H 19.90110 -10.25360 -8.82411
H 19.95375 -9.68257 -7.14208
H 19.96387 -8.50768 -8.49872
*