! RKS B3LYP 6-31+G** NormalSCF Opt NOSOSCF CHELPG

*xyz 0 1
S -5.67320 -3.55952 -1.96715
C -3.83626 -3.51447 -1.93819
C -3.35136 -2.23360 -1.25279
O -1.91450 -2.22230 -1.24351
C -1.42172 -1.04542 -0.61259
C 0.09994 -1.07658 -0.62687
O 0.60510 0.10107 0.00409
C 2.02884 0.11328 0.01139
C 2.50557 1.38633 0.69448
O 3.93179 1.40788 0.70731
C 4.42307 2.58607 1.33983
C 5.94383 2.55487 1.32506
O 6.44061 3.73208 1.95713
C 7.86484 3.74871 1.96606
C 8.33808 5.02226 2.65079
O 9.76293 5.04300 2.66109
C 10.25517 6.21969 3.29577
C 11.77649 6.19003 3.27746
O 12.27195 7.36518 3.91341
C 13.69719 7.38386 3.92409
C 14.17123 8.65565 4.61295
O 15.59671 8.67701 4.62530
C 16.09039 9.85376 5.26319
C 17.61339 9.82595 5.24858
O 18.11496 11.00008 5.88413
C 19.53618 11.01533 5.89213
H -3.39687 -3.55629 -2.94288
H -3.40096 -4.37368 -1.41240
H -3.70979 -2.18651 -0.21664
H -3.70617 -1.34542 -1.79091
H -1.78107 -0.98938 0.42205
H -1.77850 -0.15272 -1.14039
H 0.46193 -1.13239 -1.66064
H 0.45952 -1.96804 -0.09883
H 2.41425 0.07481 -1.01473
H 2.41350 -0.76302 0.54722
H 2.11967 1.42582 1.72041
H 2.12106 2.26306 0.15917
H 4.06176 2.64012 2.37387
H 4.06363 3.47772 0.81213
H 6.30508 2.50052 0.29091
H 6.30321 1.66304 1.85236
H 8.25057 3.71187 0.94024
H 8.25064 2.87289 2.50109
H 7.95183 5.05883 3.67657
H 7.95117 5.89794 2.11608
H 9.89619 6.26942 4.33095
H 9.89368 7.11203 2.77187
H 12.13531 6.14002 2.24228
H 12.13770 5.29623 3.80028
H 14.08280 7.34953 2.89805
H 14.08239 6.50581 4.45627
H 13.78363 8.68918 5.63836
H 13.78464 9.53281 4.08012
H 15.72840 9.90224 6.29720
H 15.72872 10.74655 4.73901
H 17.97261 9.77454 4.21359
H 17.97247 8.93109 5.77114
H 19.86731 11.93150 6.38803
H 19.92474 11.01077 4.86926
H 19.92495 10.15643 6.44748
*