! RKS B3LYP 6-31+G** NormalSCF Opt NOSOSCF CHELPG

*xyz 0 1
S 0.57329 -5.01840 3.38339
C 0.57329 -3.18064 3.38339
C 0.34795 -2.65406 1.96349
O 0.35312 -1.21668 1.98984
C 0.14721 -0.68559 0.68563
C 0.16054 0.83471 0.76189
O -0.04737 1.37837 -0.54303
C -0.04175 2.80239 -0.51788
C -0.26848 3.32041 -1.93120
O -0.26323 4.74684 -1.91724
C -0.47253 5.27588 -3.22368
C -0.45525 6.79576 -3.14959
O -0.66426 7.33112 -4.45460
C -0.65483 8.75606 -4.43470
C -0.88158 9.27252 -5.84823
O -0.87200 10.69835 -5.83228
C -1.08136 11.23079 -7.13796
C -1.06158 12.75146 -7.06295
O -1.27142 13.28749 -8.36753
C -1.26150 14.71418 -8.34827
C -1.48915 15.23304 -9.76224
O -1.47993 16.65920 -9.75048
C -1.68843 17.18786 -11.05293
H 1.51203 -2.75839 3.76370
H -0.20164 -2.75840 4.03571
H -0.61864 -2.99399 1.57031
H 1.14405 -2.99565 1.28986
H -0.81408 -1.02738 0.28302
H 0.93640 -1.02866 0.00581
H 1.12165 1.17957 1.16236
H -0.62783 1.18087 1.44131
H 0.91768 3.17130 -0.13581
H -0.83219 3.17339 0.14558
H -1.22801 2.95131 -2.31323
H 0.52090 2.94765 -2.59513
H -1.43555 4.93337 -3.62117
H 0.31389 4.92742 -3.90399
H 0.50771 7.13775 -2.75140
H -1.24135 7.14403 -2.46876
H 0.30607 9.12259 -4.05392
H -1.44320 9.13023 -3.77050
H -1.84259 8.90555 -6.22844
H -0.09365 8.89692 -6.51220
H -2.04516 10.88984 -7.53491
H -0.29617 10.88117 -7.81900
H -0.09737 13.09087 -6.66571
H -1.84619 13.09964 -6.38067
H -0.30027 15.07918 -7.96726
H -2.04941 15.08745 -7.68290
H -2.44994 14.86521 -10.14205
H -0.70142 14.85638 -10.42607
H -1.67224 18.27880 -10.98836
H -2.66215 16.87493 -11.44189
H -0.89059 16.86581 -11.72921
*