! RKS B3LYP 6-31+G** NormalSCF Opt NOSOSCF CHELPG

*xyz 0 1
S -4.98945 2.12246 2.85868
C -3.15247 2.09664 2.81192
C -2.66714 1.22997 1.64646
O -1.23006 1.22520 1.63195
C -0.73704 0.42933 0.55974
C 0.78498 0.45340 0.58379
O 1.29041 -0.34180 -0.49007
C 2.71477 -0.34722 -0.50459
C 3.19165 -1.20807 -1.66606
O 4.61780 -1.22194 -1.68929
C 5.10833 -2.01892 -2.76398
C 6.62987 -1.99926 -2.73908
O 7.12728 -2.79595 -3.81222
C 8.55260 -2.80722 -3.82809
C 9.02873 -3.66808 -4.98944
O 10.45453 -3.68059 -5.00916
C 10.94977 -4.47653 -6.08308
C 12.47171 -4.45507 -6.05757
O 12.97029 -5.25152 -7.13061
C 14.39728 -5.26234 -7.14763
C 14.87530 -6.12388 -8.30922
O 16.30162 -6.13895 -8.33234
C 16.79241 -6.93372 -9.40442
H -2.71190 1.70768 3.73864
H -2.71877 3.09860 2.70139
H -3.02684 1.62776 0.68887
H -3.02069 0.19667 1.75548
H -1.09810 0.81841 -0.39997
H -1.09244 -0.60344 0.65772
H 1.14836 0.06320 1.54221
H 1.14270 1.48558 0.48629
H 3.10235 -0.74854 0.43949
H 3.09698 0.67441 -0.61717
H 2.80384 -0.80645 -2.61035
H 2.80699 -2.22909 -1.55477
H 4.74642 -1.62675 -3.72208
H 4.74773 -3.05002 -2.66622
H 6.99112 -2.39015 -1.78020
H 6.99000 -0.96784 -2.83665
H 8.93791 -3.20959 -2.88364
H 8.93737 -1.78622 -3.93919
H 8.64164 -3.26610 -5.93346
H 8.64392 -4.68896 -4.87764
H 10.58765 -4.08505 -7.04142
H 10.59014 -5.50801 -5.98544
H 12.83272 -4.84513 -5.09820
H 12.83024 -3.42305 -6.15508
H 14.78235 -5.66367 -6.20237
H 14.78062 -4.24075 -7.25847
H 14.48703 -5.72174 -9.25283
H 14.48911 -7.14424 -8.19696
H 17.88477 -6.91185 -9.37729
H 16.45772 -6.52952 -10.36470
H 16.46001 -7.97061 -9.29533
*