! RKS B3LYP 6-31+G** NormalSCF Opt NOSOSCF CHELPG

*xyz 0 1
S -3.51012 -2.09839 -1.47109
C -1.67293 -2.05628 -1.43646
C -1.18826 -0.87324 -0.59267
O 0.24910 -0.86083 -0.58126
C 0.74145 0.22661 0.19535
C 2.26436 0.20042 0.17824
O 2.77152 1.28738 0.95584
C 4.19678 1.29917 0.96442
C 4.67809 2.47417 1.80669
O 6.10560 2.49630 1.82235
C 6.59861 3.58353 2.60281
C 8.12207 3.56063 2.58540
O 8.62222 4.64649 3.36538
C 10.04924 4.66424 3.37540
C 10.52868 5.83824 4.22063
O 11.95561 5.86373 4.23633
C 12.44513 6.94678 5.01561
H -1.23403 -1.96918 -2.43840
H -1.23763 -2.97570 -1.02500
H -1.54715 -0.95960 0.44092
H -1.54444 0.07613 -1.01266
H 0.38153 0.14886 1.22839
H 0.38296 1.17863 -0.21391
H 2.62565 0.27842 -0.85434
H 2.62437 -0.75168 0.58657
H 4.58052 1.39308 -0.05851
H 4.58052 0.36062 1.38195
H 4.29273 2.38020 2.82917
H 4.29240 3.41233 1.38961
H 6.23726 3.50179 3.63500
H 6.23696 4.53498 2.19536
H 8.48242 3.64181 1.55282
H 8.48332 2.60825 2.99176
H 10.43216 4.76135 2.35235
H 10.43485 3.72517 3.78997
H 10.14334 5.74062 5.24274
H 10.14065 6.77638 3.80588
H 13.53774 6.91991 4.99421
H 12.11333 6.85223 6.05407
H 12.11066 7.90131 4.59783
*