! RKS B3LYP 6-31+G** NormalSCF Opt NOSOSCF CHELPG

*xyz 0 1
S -0.20449 -3.58696 -2.43865
C -0.20449 -1.74897 -2.43865
C -0.10199 -1.22162 -1.00422
O -0.10273 0.21561 -1.02977
C -0.00688 0.74670 0.28808
C -0.01067 2.26797 0.21258
O 0.08577 2.81351 1.53035
C 0.08649 4.23847 1.50322
C 0.19211 4.76185 2.93029
O 0.19435 6.18940 2.91484
C 0.29219 6.72198 4.23423
C 0.28959 8.24378 4.15906
O 0.38635 8.78367 5.47689
C 0.38648 10.21075 5.45434
C 0.49040 10.73294 6.88192
O 0.49100 12.16016 6.86965
C 0.58677 12.68854 8.18561
H -1.10713 -1.32712 -2.89848
H 0.62364 -1.32715 -3.02211
H 0.82621 -1.56408 -0.52909
H -0.95411 -1.56265 -0.40241
H 0.91606 0.40250 0.76994
H -0.85154 0.40427 0.89782
H -0.93320 2.61403 -0.26913
H 0.83336 2.61190 -0.39745
H -0.83531 4.60856 1.03868
H 0.93218 4.60516 0.90923
H 1.11328 4.38975 3.39482
H -0.65343 4.39399 3.52408
H 1.21540 6.37494 4.71401
H -0.55215 6.37830 4.84394
H -0.63276 8.59010 3.67768
H 1.13418 8.58671 3.54925
H -0.53525 10.58056 4.98882
H 1.23225 10.57851 4.86070
H 1.41177 10.36080 7.34617
H -0.35486 10.36246 7.47429
H 0.58303 13.77975 8.11965
H 1.52043 12.37002 8.65917
H -0.26955 12.37171 8.78874
*