! RKS B3LYP 6-31+G** NormalSCF Opt NOSOSCF CHELPG

*xyz 0 1
S -3.44146 -0.93585 2.37311
C -1.60433 -0.91171 2.32303
C -1.12046 -0.38318 0.96929
O 0.31697 -0.37424 0.95409
C 0.80884 0.11253 -0.29025
C 2.33167 0.10280 -0.26082
O 2.83852 0.59045 -1.50512
C 4.26343 0.59581 -1.51809
C 4.74561 1.12481 -2.86355
O 6.17312 1.13432 -2.88805
C 6.66695 1.62403 -4.13324
C 8.19038 1.61287 -4.10556
O 8.69084 2.10231 -5.34951
C 10.11805 2.10831 -5.36876
C 10.59693 2.63964 -6.71419
O 12.02368 2.64935 -6.74294
C 12.51261 3.13946 -7.98426
H -1.16489 -1.90427 2.48382
H -1.16899 -0.28743 3.11353
H -1.47994 0.63987 0.79986
H -1.47642 -1.02313 0.15178
H 0.44847 1.13297 -0.46795
H 0.45052 -0.51758 -1.11302
H 2.69324 -0.91738 -0.08344
H 2.69143 0.73220 0.56231
H 4.64757 -0.41882 -1.35889
H 4.64742 1.23048 -0.71053
H 4.36048 2.13925 -3.02303
H 4.36033 0.49076 -3.67130
H 6.30567 2.64468 -4.30757
H 6.30542 0.99569 -4.95617
H 8.55070 0.59202 -3.93042
H 8.55093 2.24070 -3.28182
H 10.50098 1.09276 -5.21166
H 10.50311 2.74068 -4.56008
H 10.21090 3.65423 -6.87029
H 10.20894 2.00711 -7.52168
H 13.60527 3.12610 -7.95329
H 12.17996 4.16912 -8.14727
H 12.17824 2.50005 -8.80693
*