! RKS B3LYP 6-31+G** NormalSCF Opt NOSOSCF CHELPG

*xyz 0 1
S -1.98209 1.50263 0.28342
C -0.14455 1.45215 0.27201
C 0.34261 0.02986 -0.02268
O 1.78029 0.01477 -0.02724
C 2.27464 -1.29310 -0.29999
C 3.79851 -1.26187 -0.29393
O 4.30827 -2.56967 -0.56665
C 5.73464 -2.58285 -0.56950
C 6.21735 -3.99846 -0.86478
O 7.64516 -4.03069 -0.87176
C 8.13080 -5.33807 -1.14436
H 0.29187 1.77691 1.22502
H 0.29098 2.12866 -0.47417
H -0.01549 -0.30825 -1.00350
H -0.01363 -0.66973 0.74426
H 1.91543 -1.63805 -1.27692
H 1.91592 -1.99976 0.45787
H 4.15858 -0.91633 0.68266
H 4.15813 -0.55489 -1.05129
H 6.11749 -2.25463 0.40417
H 6.11732 -1.89284 -1.33099
H 5.83060 -4.32602 -1.83743
H 5.83097 -4.68747 -0.10386
H 9.22364 -5.30777 -1.13831
H 7.79637 -5.67366 -2.13082
H 7.79680 -6.03977 -0.37388
*