! RKS B3LYP 6-31+G** NormalSCF Opt NOSOSCF CHELPG

*xyz 0 1
S 2.88299 -4.27124 0.42226
C 2.88299 -2.43344 0.42226
C 1.46204 -1.90622 0.20201
O 1.48837 -0.46916 0.20707
C 0.18227 0.06194 0.00636
C 0.25828 1.58264 0.01945
O -1.04792 2.12670 -0.17962
C -1.02268 3.55117 -0.17346
C -2.43825 4.07049 -0.38680
O -2.42517 5.49745 -0.38241
C -3.73439 6.02619 -0.57833
C -3.66231 7.54694 -0.56453
O -4.97002 8.08234 -0.75973
C -4.95113 9.50800 -0.75575
C -6.36778 10.02537 -0.96717
O -6.35334 11.45193 -0.96596
C -7.66301 11.98351 -1.16122
C -7.58957 13.50516 -1.15324
O -8.89525 14.04532 -1.34828
C -8.87295 15.46619 -1.34788
H 3.53259 -2.01130 -0.35492
H 3.26668 -2.01132 1.35970
H 0.79150 -2.24823 1.00073
H 1.06543 -2.24695 -0.76304
H -0.49337 -0.28167 0.79843
H -0.22364 -0.28001 -0.95314
H 0.93283 1.92882 -0.77299
H 0.66504 1.92671 0.97805
H -0.36652 3.92183 -0.97006
H -0.63157 3.91943 0.78242
H -3.09453 3.69812 0.40920
H -2.82978 3.70104 -1.34237
H -4.40560 5.67823 0.21606
H -4.14204 5.68160 -1.53633
H -2.99044 7.89416 -1.35876
H -3.25352 7.89080 0.39329
H -4.29638 9.87909 -1.55342
H -4.55839 9.87771 0.19909
H -7.02153 9.65418 -0.16871
H -6.76033 9.65314 -1.92114
H -8.33229 11.63838 -0.36401
H -8.07248 11.63511 -2.11703
H -6.91785 13.84780 -1.94959
H -7.17789 13.85117 -0.19741
H -9.89337 15.82630 -1.50002
H -8.24508 15.83926 -2.16290
H -8.50869 15.84283 -0.38715
*